c3_VLN_Node.Txt

LINE-GROUND and LINE-LINE VOLTAGES BY BUS & NODE

Bus       Node    VLN (kV)   Angle      pu     Base kV    Node-Node   VLL (kV)  Angle      pu

SOURCEBUS 1      0.23094 /_    0.0         1     0.400        1-2        0.4 /_   30.0         1
   -      2      0.23094 /_ -120.0         1     0.400        2-3        0.4 /_  -90.0         1
   -      3      0.23094 /_  120.0         1     0.400        3-1        0.4 /_  150.0         1
MIDBUS .. 1      0.22482 /_   -1.3   0.97352     0.400        1-2    0.38779 /_   28.6   0.96949
   -      2      0.22283 /_ -121.3    0.9649     0.400        2-3    0.38528 /_  -91.7   0.96319
   -      3      0.22089 /_  118.2   0.95646     0.400        3-1    0.38488 /_  148.7   0.96219
L1 ...... 1      0.21882 /_   -2.6   0.94753     0.400
L2 ...... 2      0.21485 /_ -122.7   0.93035     0.400        2-3     0.3698 /_  -93.3   0.92451
   -      3      0.21085 /_  116.7   0.91301     0.400
CAP1 .... 3      0.22106 /_  117.7   0.95724     0.400
